Version 4
SHEET 1 880 680
WIRE 208 0 128 0
WIRE 336 0 288 0
WIRE 416 0 336 0
WIRE 128 32 128 0
WIRE 336 32 336 0
WIRE 128 144 128 112
WIRE 336 144 336 112
WIRE 336 144 128 144
WIRE 128 160 128 144
FLAG 128 160 0
FLAG 416 0 Vout
IOPIN 416 0 Out
SYMBOL Misc\\battery 128 16 R0
WINDOW 0 -45 7 Left 2
WINDOW 3 -60 106 Left 2
WINDOW 123 0 0 Left 0
WINDOW 39 0 0 Left 0
SYMATTR InstName V1
SYMATTR Value 4.2V
SYMBOL res 304 -16 R90
WINDOW 0 -7 52 VBottom 2
WINDOW 3 32 56 VTop 2
SYMATTR InstName R1
SYMATTR Value 272.75K
SYMBOL res 320 16 R0
SYMATTR InstName R2
SYMATTR Value 1Meg
