Version 4
SHEET 1 1072 680
WIRE 208 0 128 0
WIRE 336 0 288 0
WIRE 416 0 336 0
WIRE 864 0 672 0
WIRE 960 0 864 0
WIRE 672 16 672 0
WIRE 128 32 128 0
WIRE 336 32 336 0
WIRE 864 32 864 0
WIRE 864 32 832 32
WIRE 896 32 864 32
WIRE 864 112 832 112
WIRE 896 112 864 112
WIRE 128 144 128 112
WIRE 336 144 336 112
WIRE 336 144 128 144
WIRE 672 144 672 96
WIRE 864 144 864 112
WIRE 864 144 672 144
WIRE 128 160 128 144
WIRE 672 160 672 144
FLAG 128 160 0
FLAG 416 0 Vout
IOPIN 416 0 Out
FLAG 960 0 Vout
IOPIN 960 0 Out
FLAG 672 160 0
SYMBOL Misc\\battery 128 16 R0
WINDOW 0 -45 7 Left 2
WINDOW 3 -60 106 Left 2
WINDOW 123 0 0 Left 0
WINDOW 39 0 0 Left 0
SYMATTR InstName V1
SYMATTR Value 4.2V
SYMBOL res 304 -16 R90
WINDOW 0 -7 52 VBottom 2
WINDOW 3 32 56 VTop 2
SYMATTR InstName R1
SYMATTR Value 272.75K
SYMBOL res 320 16 R0
SYMATTR InstName R2
SYMATTR Value 1Meg
SYMBOL voltage 672 0 R0
WINDOW 123 0 0 Left 0
WINDOW 39 0 0 Left 0
SYMATTR InstName V2
SYMATTR Value 3.3V
SYMBOL res 880 16 R0
SYMATTR InstName R3
SYMATTR Value 10
SYMBOL res 816 16 R0
SYMATTR InstName R4
SYMATTR Value 10
